<?xml version="1.0" encoding="UTF-8"?>

<!-- generated on 2025-04-22 12:02:11 by Eclipse SUMO netconvert Version 1.22.0
<netconvertConfiguration xmlns:xsi="http://www.w3.org/2001/XMLSchema-instance" xsi:noNamespaceSchemaLocation="http://sumo.dlr.de/xsd/netconvertConfiguration.xsd">

    <input>
        <osm-files value="FilteredRoad.osm"/>
    </input>

    <output>
        <output-file value="Filtered.net.xml"/>
    </output>

    <projection>
        <proj.utm value="true"/>
    </projection>

    <processing>
        <geometry.remove value="true"/>
        <roundabouts.guess value="false"/>
    </processing>

    <ramp_guessing>
        <ramps.guess value="false"/>
    </ramp_guessing>

    <junctions>
        <no-turnarounds value="true"/>
        <junctions.join value="false"/>
    </junctions>

</netconvertConfiguration>
-->

<net version="1.20" junctionCornerDetail="5" limitTurnSpeed="5.50" xmlns:xsi="http://www.w3.org/2001/XMLSchema-instance" xsi:noNamespaceSchemaLocation="http://sumo.dlr.de/xsd/net_file.xsd">

    <location netOffset="-221395.42,-1930061.19" convBoundary="0.00,0.00,2021.78,1894.45" origBoundary="78.377098,17.439509,78.396187,17.456368" projParameter="+proj=utm +zone=44 +ellps=WGS84 +datum=WGS84 +units=m +no_defs"/>

    <type id="highway.primary" priority="12" numLanes="2" speed="27.78" disallow="tram rail_urban rail rail_electric rail_fast ship container cable_car subway aircraft wheelchair scooter drone" oneway="0"/>
    <type id="highway.primary_link" priority="7" numLanes="1" speed="22.22" disallow="tram rail_urban rail rail_electric rail_fast ship container cable_car subway aircraft wheelchair scooter drone" oneway="0"/>
    <type id="highway.service" priority="1" numLanes="1" speed="5.56" allow="pedestrian delivery bicycle" oneway="0"/>

    <edge id=":1310963249_0" function="internal">
        <lane id=":1310963249_0_0" index="0" disallow="tram rail_urban rail rail_electric rail_fast ship container cable_car subway aircraft wheelchair scooter drone" speed="27.78" length="0.29" shape="472.06,1369.19 471.89,1368.97"/>
        <lane id=":1310963249_0_1" index="1" disallow="tram rail_urban rail rail_electric rail_fast ship container cable_car subway aircraft wheelchair scooter drone" speed="27.78" length="0.29" shape="474.54,1367.16 474.35,1366.92"/>
    </edge>
    <edge id=":1836644085_0" function="internal">
        <lane id=":1836644085_0_0" index="0" disallow="tram rail_urban rail rail_electric rail_fast ship container cable_car subway aircraft wheelchair scooter drone" speed="7.76" length="12.79" shape="447.49,1344.76 444.95,1343.44 442.26,1343.47 439.41,1344.86 436.41,1347.61"/>
    </edge>
    <edge id=":1836644085_1" function="internal">
        <lane id=":1836644085_1_0" index="0" disallow="tram rail_urban rail rail_electric rail_fast ship container cable_car subway aircraft wheelchair scooter drone" speed="27.78" length="16.03" shape="447.49,1344.76 443.58,1342.23 440.47,1341.22 437.27,1340.31 433.11,1338.12"/>
        <lane id=":1836644085_1_1" index="1" disallow="tram rail_urban rail rail_electric rail_fast ship container cable_car subway aircraft wheelchair scooter drone" speed="27.78" length="16.03" shape="447.49,1344.76 443.87,1341.83 441.35,1339.89 438.75,1338.05 434.89,1335.46"/>
        <lane id=":1836644085_1_2" index="2" disallow="tram rail_urban rail rail_electric rail_fast ship container cable_car subway aircraft wheelchair scooter drone" speed="27.78" length="16.03" shape="449.51,1342.28 445.82,1339.29 443.26,1337.31 440.60,1335.44 436.67,1332.80"/>
        <lane id=":1836644085_1_3" index="3" disallow="tram rail_urban rail rail_electric rail_fast ship container cable_car subway aircraft wheelchair scooter drone" speed="27.78" length="16.03" shape="449.51,1342.28 446.05,1338.84 444.15,1335.98 442.16,1333.23 438.45,1330.14"/>
    </edge>
    <edge id=":1836644085_5" function="internal">
        <lane id=":1836644085_5_0" index="0" disallow="tram rail_urban rail rail_electric rail_fast ship container cable_car subway aircraft wheelchair scooter drone" speed="20.83" length="20.71" shape="451.19,1333.59 436.41,1347.61"/>
        <lane id=":1836644085_5_1" index="1" disallow="tram rail_urban rail rail_electric rail_fast ship container cable_car subway aircraft wheelchair scooter drone" speed="20.83" length="20.71" shape="451.19,1333.59 446.51,1337.67 442.50,1339.65 438.55,1341.57 434.03,1345.47"/>
    </edge>
    <edge id=":1836644085_7" function="internal">
        <lane id=":1836644085_7_0" index="0" disallow="tram rail_urban rail rail_electric rail_fast ship container cable_car subway aircraft wheelchair scooter drone" speed="8.27" length="13.54" shape="448.82,1331.45 446.06,1333.75 443.12,1334.74 439.99,1334.43 436.67,1332.80"/>
        <lane id=":1836644085_7_1" index="1" disallow="tram rail_urban rail rail_electric rail_fast ship container cable_car subway aircraft wheelchair scooter drone" speed="6.81" length="8.90" shape="446.44,1329.30 444.64,1330.80 442.70,1331.44 440.64,1331.22 438.45,1330.14"/>
    </edge>
    <edge id=":1836646094_0" function="internal">
        <lane id=":1836646094_0_0" index="0" disallow="tram rail_urban rail rail_electric rail_fast ship container cable_car subway aircraft wheelchair scooter drone" speed="6.89" length="10.72" shape="432.47,1351.99 430.27,1354.90 429.25,1357.42 429.42,1359.56 430.78,1361.31"/>
        <lane id=":1836646094_0_1" index="1" disallow="tram rail_urban rail rail_electric rail_fast ship container cable_car subway aircraft wheelchair scooter drone" speed="8.30" length="16.06" shape="430.09,1349.85 427.06,1353.99 425.83,1357.70 426.41,1360.97 428.78,1363.81"/>
    </edge>
    <edge id=":1836646094_2" function="internal">
        <lane id=":1836646094_2_0" index="0" disallow="tram rail_urban rail rail_electric rail_fast ship container cable_car subway aircraft wheelchair scooter drone" speed="20.83" length="21.38" shape="430.09,1349.85 426.63,1354.80 425.01,1359.07 423.29,1363.44 419.52,1368.74"/>
        <lane id=":1836646094_2_1" index="1" disallow="tram rail_urban rail rail_electric rail_fast ship container cable_car subway aircraft wheelchair scooter drone" speed="20.83" length="21.38" shape="430.09,1349.85 417.15,1366.60"/>
        <lane id=":1836646094_2_2" index="2" disallow="tram rail_urban rail rail_electric rail_fast ship container cable_car subway aircraft wheelchair scooter drone" speed="20.83" length="21.38" shape="430.09,1349.85 414.77,1364.46"/>
    </edge>
    <edge id=":1836646094_5" function="internal">
        <lane id=":1836646094_5_0" index="0" disallow="tram rail_urban rail rail_electric rail_fast ship container cable_car subway aircraft wheelchair scooter drone" speed="27.78" length="16.83" shape="419.37,1348.93 423.14,1352.15 425.20,1354.95 427.19,1357.83 430.78,1361.31"/>
        <lane id=":1836646094_5_1" index="1" disallow="tram rail_urban rail rail_electric rail_fast ship container cable_car subway aircraft wheelchair scooter drone" speed="27.78" length="16.83" shape="417.54,1351.56 421.26,1354.75 423.29,1357.52 425.25,1360.37 428.78,1363.81"/>
    </edge>
    <edge id=":1836646094_7" function="internal">
        <lane id=":1836646094_7_0" index="0" disallow="tram rail_urban rail rail_electric rail_fast ship container cable_car subway aircraft wheelchair scooter drone" speed="7.79" length="14.70" shape="415.71,1354.19 418.71,1356.99 419.95,1359.99 419.43,1363.19 417.15,1366.60"/>
        <lane id=":1836646094_7_1" index="1" disallow="tram rail_urban rail rail_electric rail_fast ship container cable_car subway aircraft wheelchair scooter drone" speed="6.25" length="9.05" shape="413.89,1356.82 415.73,1358.54 416.50,1360.39 416.17,1362.36 414.77,1364.46"/>
    </edge>
    <edge id=":1836646098_0" function="internal">
        <lane id=":1836646098_0_0" index="0" disallow="tram rail_urban rail rail_electric rail_fast ship container cable_car subway aircraft wheelchair scooter drone" speed="27.78" length="16.10" shape="467.26,1396.72 478.45,1408.38"/>
        <lane id=":1836646098_0_1" index="1" disallow="tram rail_urban rail rail_electric rail_fast ship container cable_car subway aircraft wheelchair scooter drone" speed="27.78" length="16.10" shape="464.96,1398.95 476.06,1410.51"/>
    </edge>
    <edge id=":1836646098_2" function="internal">
        <lane id=":1836646098_2_0" index="0" disallow="tram rail_urban rail rail_electric rail_fast ship container cable_car subway aircraft wheelchair scooter drone" speed="20.51" length="15.96" shape="462.28,1402.97 465.66,1404.09 468.96,1405.22 472.36,1407.11 476.06,1410.51"/>
    </edge>
    <edge id=":314941032_0" function="internal">
        <lane id=":314941032_0_0" index="0" disallow="tram rail_urban rail rail_electric rail_fast ship container cable_car subway aircraft wheelchair scooter drone" speed="20.83" length="0.37" shape="261.46,1200.64 261.33,1200.16"/>
        <lane id=":314941032_0_1" index="1" disallow="tram rail_urban rail rail_electric rail_fast ship container cable_car subway aircraft wheelchair scooter drone" speed="20.83" length="0.37" shape="264.54,1199.77 264.43,1199.37"/>
        <lane id=":314941032_0_2" index="2" disallow="tram rail_urban rail rail_electric rail_fast ship container cable_car subway aircraft wheelchair scooter drone" speed="20.83" length="0.37" shape="267.62,1198.90 267.53,1198.58"/>
        <lane id=":314941032_0_3" index="3" disallow="tram rail_urban rail rail_electric rail_fast ship container cable_car subway aircraft wheelchair scooter drone" speed="20.83" length="0.37" shape="270.70,1198.03 270.63,1197.79"/>
    </edge>
    <edge id=":3171931319_0" function="internal">
        <lane id=":3171931319_0_0" index="0" disallow="tram rail_urban rail rail_electric rail_fast ship container cable_car subway aircraft wheelchair scooter drone" speed="27.78" length="13.71" shape="457.93,1353.81 447.64,1344.88"/>
        <lane id=":3171931319_0_1" index="1" disallow="tram rail_urban rail rail_electric rail_fast ship container cable_car subway aircraft wheelchair scooter drone" speed="27.78" length="13.71" shape="460.09,1351.45 449.66,1342.40"/>
    </edge>
    <edge id=":3171931319_2" function="internal">
        <lane id=":3171931319_2_0" index="0" disallow="tram rail_urban rail rail_electric rail_fast ship container cable_car subway aircraft wheelchair scooter drone" speed="6.53" length="4.20" shape="460.09,1351.45 458.53,1349.54 458.03,1347.89"/>
    </edge>
    <edge id=":3171931319_6" function="internal">
        <lane id=":3171931319_6_0" index="0" disallow="tram rail_urban rail rail_electric rail_fast ship container cable_car subway aircraft wheelchair scooter drone" speed="6.53" length="4.83" shape="458.03,1347.89 457.94,1347.58 458.33,1345.57 459.71,1343.52"/>
    </edge>
    <edge id=":3171931319_3" function="internal">
        <lane id=":3171931319_3_0" index="0" disallow="tram rail_urban rail rail_electric rail_fast ship container cable_car subway aircraft wheelchair scooter drone" speed="6.11" length="8.33" shape="447.40,1352.06 448.91,1350.06 449.45,1348.20 449.03,1346.47 447.64,1344.88"/>
    </edge>
    <edge id=":3171931319_4" function="internal">
        <lane id=":3171931319_4_0" index="0" disallow="tram rail_urban rail rail_electric rail_fast ship container cable_car subway aircraft wheelchair scooter drone" speed="27.78" length="14.64" shape="447.40,1352.06 457.33,1341.38"/>
        <lane id=":3171931319_4_1" index="1" disallow="tram rail_urban rail rail_electric rail_fast ship container cable_car subway aircraft wheelchair scooter drone" speed="27.78" length="14.64" shape="449.70,1354.28 459.71,1343.52"/>
    </edge>
    <edge id=":3171931320_0" function="internal">
        <lane id=":3171931320_0_0" index="0" disallow="tram rail_urban rail rail_electric rail_fast ship container cable_car subway aircraft wheelchair scooter drone" speed="6.69" length="8.93" shape="430.94,1361.43 433.01,1362.66 435.03,1362.98 437.00,1362.39 438.90,1360.89"/>
        <lane id=":3171931320_0_1" index="1" disallow="tram rail_urban rail rail_electric rail_fast ship container cable_car subway aircraft wheelchair scooter drone" speed="8.16" length="13.75" shape="428.94,1363.93 432.14,1365.82 435.25,1366.32 438.28,1365.41 441.21,1363.11"/>
    </edge>
    <edge id=":3171931320_2" function="internal">
        <lane id=":3171931320_2_0" index="0" disallow="tram rail_urban rail rail_electric rail_fast ship container cable_car subway aircraft wheelchair scooter drone" speed="27.78" length="15.39" shape="428.94,1363.93 432.83,1366.42 435.88,1367.57 438.85,1368.80 442.50,1371.57"/>
        <lane id=":3171931320_2_1" index="1" disallow="tram rail_urban rail rail_electric rail_fast ship container cable_car subway aircraft wheelchair scooter drone" speed="27.78" length="15.39" shape="428.94,1363.93 440.30,1373.90"/>
    </edge>
    <edge id=":3171931320_4" function="internal">
        <lane id=":3171931320_4_0" index="0" disallow="tram rail_urban rail rail_electric rail_fast ship container cable_car subway aircraft wheelchair scooter drone" speed="27.78" length="14.31" shape="427.90,1369.99 431.02,1367.13 433.41,1365.44 435.79,1363.76 438.90,1360.89"/>
        <lane id=":3171931320_4_1" index="1" disallow="tram rail_urban rail rail_electric rail_fast ship container cable_car subway aircraft wheelchair scooter drone" speed="27.78" length="14.31" shape="430.20,1372.21 433.32,1369.35 435.71,1367.67 438.10,1365.98 441.21,1363.11"/>
    </edge>
    <edge id=":3171931320_6" function="internal">
        <lane id=":3171931320_6_0" index="0" disallow="tram rail_urban rail rail_electric rail_fast ship container cable_car subway aircraft wheelchair scooter drone" speed="6.48" length="8.88" shape="432.50,1374.44 434.49,1372.85 436.45,1372.23 438.39,1372.58 440.30,1373.90"/>
    </edge>
    <edge id=":321717642_0" function="internal">
        <lane id=":321717642_0_0" index="0" disallow="tram rail_urban rail rail_electric rail_fast ship container cable_car subway aircraft wheelchair scooter drone" speed="19.45" length="0.29" shape="308.66,1511.68 308.89,1511.38"/>
        <lane id=":321717642_0_1" index="1" disallow="tram rail_urban rail rail_electric rail_fast ship container cable_car subway aircraft wheelchair scooter drone" speed="19.45" length="0.29" shape="311.20,1513.62 311.38,1513.40"/>
        <lane id=":321717642_0_2" index="2" disallow="tram rail_urban rail rail_electric rail_fast ship container cable_car subway aircraft wheelchair scooter drone" speed="19.45" length="0.29" shape="313.74,1515.57 313.87,1515.41"/>
    </edge>
    <edge id=":324836119_0" function="internal">
        <lane id=":324836119_0_0" index="0" disallow="tram rail_urban rail rail_electric rail_fast ship container cable_car subway aircraft wheelchair scooter drone" speed="20.83" length="1.17" shape="263.37,1214.45 263.63,1215.00 263.79,1215.38 263.92,1215.78 264.09,1216.36"/>
        <lane id=":324836119_0_1" index="1" disallow="tram rail_urban rail rail_electric rail_fast ship container cable_car subway aircraft wheelchair scooter drone" speed="20.83" length="1.17" shape="260.49,1215.84 260.67,1216.23 260.79,1216.50 260.88,1216.78 261.00,1217.20"/>
        <lane id=":324836119_0_2" index="2" disallow="tram rail_urban rail rail_electric rail_fast ship container cable_car subway aircraft wheelchair scooter drone" speed="20.83" length="1.17" shape="257.60,1217.22 257.72,1217.46 257.78,1217.62 257.84,1217.79 257.91,1218.04"/>
        <lane id=":324836119_0_3" index="3" disallow="tram rail_urban rail rail_electric rail_fast ship container cable_car subway aircraft wheelchair scooter drone" speed="20.83" length="1.17" shape="254.72,1218.61 254.76,1218.69 254.78,1218.74 254.80,1218.80 254.82,1218.88"/>
    </edge>
    <edge id=":4331878160_0" function="internal">
        <lane id=":4331878160_0_0" index="0" disallow="tram rail_urban rail rail_electric rail_fast ship container cable_car subway aircraft wheelchair scooter drone" speed="22.22" length="0.24" shape="448.96,1314.78 448.90,1314.80 448.85,1314.81 448.80,1314.82 448.74,1314.84"/>
    </edge>
    <edge id=":4331878163_0" function="internal">
        <lane id=":4331878163_0_0" index="0" disallow="tram rail_urban rail rail_electric rail_fast ship container cable_car subway aircraft wheelchair scooter drone" speed="13.89" length="0.30" shape="457.20,1326.80 457.00,1327.03"/>
        <lane id=":4331878163_0_1" index="1" disallow="tram rail_urban rail rail_electric rail_fast ship container cable_car subway aircraft wheelchair scooter drone" speed="13.89" length="0.30" shape="454.78,1324.70 454.59,1324.93"/>
        <lane id=":4331878163_0_2" index="2" disallow="tram rail_urban rail rail_electric rail_fast ship container cable_car subway aircraft wheelchair scooter drone" speed="13.89" length="0.30" shape="452.37,1322.60 452.18,1322.82"/>
    </edge>
    <edge id=":4331878172_0" function="internal">
        <lane id=":4331878172_0_0" index="0" disallow="tram rail_urban rail rail_electric rail_fast ship container cable_car subway aircraft wheelchair scooter drone" speed="27.78" length="0.37" shape="408.72,1341.97 408.93,1342.11"/>
        <lane id=":4331878172_0_1" index="1" disallow="tram rail_urban rail rail_electric rail_fast ship container cable_car subway aircraft wheelchair scooter drone" speed="27.78" length="0.37" shape="406.94,1344.63 407.22,1344.81"/>
        <lane id=":4331878172_0_2" index="2" disallow="tram rail_urban rail rail_electric rail_fast ship container cable_car subway aircraft wheelchair scooter drone" speed="27.78" length="0.37" shape="405.17,1347.29 405.51,1347.52"/>
        <lane id=":4331878172_0_3" index="3" disallow="tram rail_urban rail rail_electric rail_fast ship container cable_car subway aircraft wheelchair scooter drone" speed="27.78" length="0.37" shape="403.39,1349.96 403.80,1350.22"/>
    </edge>
    <edge id=":4331878177_0" function="internal">
        <lane id=":4331878177_0_0" index="0" disallow="tram rail_urban rail rail_electric rail_fast ship container cable_car subway aircraft wheelchair scooter drone" speed="22.22" length="0.10" shape="393.22,1351.35 393.22,1351.35"/>
    </edge>
    <edge id=":4331878184_0" function="internal">
        <lane id=":4331878184_0_0" index="0" disallow="tram rail_urban rail rail_electric rail_fast ship container cable_car subway aircraft wheelchair scooter drone" speed="22.22" length="0.10" shape="478.70,1358.45 478.70,1358.45"/>
    </edge>
    <edge id=":4331884701_0" function="internal">
        <lane id=":4331884701_0_0" index="0" disallow="tram rail_urban rail rail_electric rail_fast ship container cable_car subway aircraft wheelchair scooter drone" speed="27.78" length="0.27" shape="405.58,1393.80 405.87,1393.46"/>
        <lane id=":4331884701_0_1" index="1" disallow="tram rail_urban rail rail_electric rail_fast ship container cable_car subway aircraft wheelchair scooter drone" speed="27.78" length="0.27" shape="408.04,1395.84 408.21,1395.65"/>
        <lane id=":4331884701_0_2" index="2" disallow="tram rail_urban rail rail_electric rail_fast ship container cable_car subway aircraft wheelchair scooter drone" speed="27.78" length="0.27" shape="410.50,1397.89 410.55,1397.83"/>
    </edge>
    <edge id=":4331884704_0" function="internal">
        <lane id=":4331884704_0_0" index="0" disallow="tram rail_urban rail rail_electric rail_fast ship container cable_car subway aircraft wheelchair scooter drone" speed="22.22" length="0.10" shape="428.46,1401.24 428.46,1401.24"/>
    </edge>
    <edge id=":6150060853_0" function="internal">
        <lane id=":6150060853_0_0" index="0" disallow="tram rail_urban rail rail_electric rail_fast ship container cable_car subway aircraft wheelchair scooter drone" speed="12.50" length="14.65" shape="471.05,1310.16 461.89,1321.39"/>
        <lane id=":6150060853_0_1" index="1" disallow="tram rail_urban rail rail_electric rail_fast ship container cable_car subway aircraft wheelchair scooter drone" speed="12.50" length="14.65" shape="468.74,1307.94 459.48,1319.29"/>
        <lane id=":6150060853_0_2" index="2" disallow="tram rail_urban rail rail_electric rail_fast ship container cable_car subway aircraft wheelchair scooter drone" speed="12.50" length="14.65" shape="466.43,1305.73 457.06,1317.19"/>
    </edge>
    <edge id=":6150060853_3" function="internal">
        <lane id=":6150060853_3_0" index="0" disallow="tram rail_urban rail rail_electric rail_fast ship container cable_car subway aircraft wheelchair scooter drone" speed="16.67" length="14.87" shape="466.43,1305.73 462.97,1308.88 459.95,1310.77 457.00,1311.99 453.75,1313.09"/>
    </edge>
    <edge id=":6150060854_0" function="internal">
        <lane id=":6150060854_0_0" index="0" disallow="tram rail_urban rail rail_electric rail_fast ship container cable_car subway aircraft wheelchair scooter drone" speed="19.45" length="6.36" shape="474.92,1321.80 476.00,1320.31 476.51,1319.12 476.99,1317.91 478.02,1316.37"/>
        <lane id=":6150060854_0_1" index="1" disallow="tram rail_urban rail rail_electric rail_fast ship container cable_car subway aircraft wheelchair scooter drone" speed="19.45" length="6.36" shape="477.30,1323.94 478.41,1322.42 478.93,1321.21 479.43,1319.98 480.49,1318.41"/>
    </edge>
    <edge id=":6150060854_2" function="internal">
        <lane id=":6150060854_2_0" index="0" disallow="tram rail_urban rail rail_electric rail_fast ship container cable_car subway aircraft wheelchair scooter drone" speed="16.40" length="6.00" shape="480.55,1325.86 481.03,1324.14 481.38,1322.95 481.91,1321.86 482.96,1320.45"/>
    </edge>
    <edge id=":6159192411_0" function="internal">
        <lane id=":6159192411_0_0" index="0" disallow="tram rail_urban rail rail_electric rail_fast ship container cable_car subway aircraft wheelchair scooter drone" speed="27.78" length="21.98" shape="488.44,1389.45 474.61,1372.30"/>
        <lane id=":6159192411_0_1" index="1" disallow="tram rail_urban rail rail_electric rail_fast ship container cable_car subway aircraft wheelchair scooter drone" speed="27.78" length="21.98" shape="490.84,1387.34 477.08,1370.28"/>
    </edge>
    <edge id=":6159192411_2" function="internal">
        <lane id=":6159192411_2_0" index="0" disallow="tram rail_urban rail rail_electric rail_fast ship container cable_car subway aircraft wheelchair scooter drone" speed="25.00" length="22.08" shape="490.84,1387.34 486.74,1381.78 484.03,1376.52 482.26,1371.79 480.95,1367.80"/>
    </edge>
    <edge id=":6159192413_0" function="internal">
        <lane id=":6159192413_0_0" index="0" disallow="tram rail_urban rail rail_electric rail_fast ship container cable_car subway aircraft wheelchair scooter drone" speed="27.78" length="15.01" shape="392.73,1409.24 402.32,1397.71"/>
        <lane id=":6159192413_0_1" index="1" disallow="tram rail_urban rail rail_electric rail_fast ship container cable_car subway aircraft wheelchair scooter drone" speed="27.78" length="15.01" shape="395.18,1411.29 404.78,1399.75"/>
        <lane id=":6159192413_0_2" index="2" disallow="tram rail_urban rail rail_electric rail_fast ship container cable_car subway aircraft wheelchair scooter drone" speed="27.78" length="15.01" shape="397.64,1413.35 407.24,1401.80"/>
    </edge>
    <edge id=":6159192413_3" function="internal">
        <lane id=":6159192413_3_0" index="0" disallow="tram rail_urban rail rail_electric rail_fast ship container cable_car subway aircraft wheelchair scooter drone" speed="16.68" length="15.21" shape="397.64,1413.35 401.00,1409.98 404.08,1408.02 407.16,1406.84 410.51,1405.83"/>
    </edge>
    <edge id=":6159192414_0" function="internal">
        <lane id=":6159192414_0_0" index="0" disallow="tram rail_urban rail rail_electric rail_fast ship container cable_car subway aircraft wheelchair scooter drone" speed="13.89" length="15.42" shape="401.38,1389.28 391.05,1400.64"/>
        <lane id=":6159192414_0_1" index="1" disallow="tram rail_urban rail rail_electric rail_fast ship container cable_car subway aircraft wheelchair scooter drone" speed="13.89" length="15.42" shape="398.98,1387.16 388.61,1398.58"/>
        <lane id=":6159192414_0_2" index="2" disallow="tram rail_urban rail rail_electric rail_fast ship container cable_car subway aircraft wheelchair scooter drone" speed="13.89" length="15.42" shape="396.58,1385.04 386.16,1396.51"/>
    </edge>
    <edge id=":6159192414_3" function="internal">
        <lane id=":6159192414_3_0" index="0" disallow="tram rail_urban rail rail_electric rail_fast ship container cable_car subway aircraft wheelchair scooter drone" speed="18.05" length="16.47" shape="392.35,1382.22 391.98,1385.92 392.03,1389.81 391.30,1394.00 388.61,1398.58"/>
        <lane id=":6159192414_3_1" index="1" disallow="tram rail_urban rail rail_electric rail_fast ship container cable_car subway aircraft wheelchair scooter drone" speed="18.05" length="16.47" shape="392.35,1382.22 391.55,1385.66 390.66,1388.95 389.07,1392.45 386.16,1396.51"/>
    </edge>
    <edge id=":6159192415_0" function="internal">
        <lane id=":6159192415_0_0" index="0" disallow="tram rail_urban rail rail_electric rail_fast ship container cable_car subway aircraft wheelchair scooter drone" speed="27.78" length="12.84" shape="392.29,1331.14 402.96,1338.13"/>
        <lane id=":6159192415_0_1" index="1" disallow="tram rail_urban rail rail_electric rail_fast ship container cable_car subway aircraft wheelchair scooter drone" speed="27.78" length="12.84" shape="390.47,1333.77 401.18,1340.79"/>
        <lane id=":6159192415_0_2" index="2" disallow="tram rail_urban rail rail_electric rail_fast ship container cable_car subway aircraft wheelchair scooter drone" speed="27.78" length="12.84" shape="388.64,1336.40 399.41,1343.45"/>
        <lane id=":6159192415_0_3" index="3" disallow="tram rail_urban rail rail_electric rail_fast ship container cable_car subway aircraft wheelchair scooter drone" speed="27.78" length="12.84" shape="386.82,1339.03 397.63,1346.11"/>
    </edge>
    <edge id=":6159192415_4" function="internal">
        <lane id=":6159192415_4_0" index="0" disallow="tram rail_urban rail rail_electric rail_fast ship container cable_car subway aircraft wheelchair scooter drone" speed="12.53" length="13.08" shape="386.82,1339.03 389.80,1341.59 391.39,1344.08 392.21,1346.81 392.92,1350.09"/>
    </edge>
    <edge id=":6159192416_0" function="internal">
        <lane id=":6159192416_0_0" index="0" disallow="tram rail_urban rail rail_electric rail_fast ship container cable_car subway aircraft wheelchair scooter drone" speed="27.78" length="16.25" shape="420.56,1329.75 407.01,1320.76"/>
        <lane id=":6159192416_0_1" index="1" disallow="tram rail_urban rail rail_electric rail_fast ship container cable_car subway aircraft wheelchair scooter drone" speed="27.78" length="16.25" shape="422.33,1327.09 408.79,1318.10"/>
        <lane id=":6159192416_0_2" index="2" disallow="tram rail_urban rail rail_electric rail_fast ship container cable_car subway aircraft wheelchair scooter drone" speed="27.78" length="16.25" shape="424.11,1324.43 410.57,1315.44"/>
        <lane id=":6159192416_0_3" index="3" disallow="tram rail_urban rail rail_electric rail_fast ship container cable_car subway aircraft wheelchair scooter drone" speed="27.78" length="16.25" shape="425.88,1321.76 412.35,1312.78"/>
    </edge>
    <edge id=":6159192416_4" function="internal">
        <lane id=":6159192416_4_0" index="0" disallow="tram rail_urban rail rail_electric rail_fast ship container cable_car subway aircraft wheelchair scooter drone" speed="17.42" length="17.24" shape="427.99,1316.82 424.18,1317.29 420.13,1317.96 415.65,1317.71 410.57,1315.44"/>
        <lane id=":6159192416_4_1" index="1" disallow="tram rail_urban rail rail_electric rail_fast ship container cable_car subway aircraft wheelchair scooter drone" speed="16.69" length="17.24" shape="427.99,1316.82 424.38,1316.83 420.81,1316.49 416.92,1315.31 412.35,1312.78"/>
    </edge>
    <edge id=":7699556296_0" function="internal">
        <lane id=":7699556296_0_0" index="0" disallow="tram rail_urban rail rail_electric rail_fast ship container cable_car subway aircraft wheelchair scooter drone" speed="13.89" length="9.40" shape="287.53,1523.80 281.88,1531.32"/>
        <lane id=":7699556296_0_1" index="1" disallow="tram rail_urban rail rail_electric rail_fast ship container cable_car subway aircraft wheelchair scooter drone" speed="13.89" length="9.40" shape="284.97,1521.88 279.32,1529.40"/>
        <lane id=":7699556296_0_2" index="2" disallow="tram rail_urban rail rail_electric rail_fast ship container cable_car subway aircraft wheelchair scooter drone" speed="13.89" length="9.40" shape="282.41,1519.96 276.76,1527.48"/>
    </edge>
    <edge id=":7699556296_3" function="internal">
        <lane id=":7699556296_3_0" index="0" allow="pedestrian delivery bicycle" speed="6.07" length="7.79" shape="282.41,1519.96 280.59,1522.05 278.94,1523.27 277.44,1523.61 276.11,1523.08"/>
    </edge>
    <edge id=":7699556296_4" function="internal">
        <lane id=":7699556296_4_0" index="0" allow="pedestrian delivery bicycle" speed="6.90" length="10.16" shape="278.06,1520.55 280.02,1522.55 280.88,1524.69 280.65,1526.98 279.32,1529.40"/>
        <lane id=":7699556296_4_1" index="1" allow="pedestrian delivery bicycle" speed="6.12" length="7.78" shape="278.06,1520.55 278.91,1521.70 278.97,1523.24 278.26,1525.16 276.76,1527.48"/>
    </edge>

    <edge id="-1189092235" from="7699556296" to="7699556297" priority="1" type="highway.service">
        <lane id="-1189092235_0" index="0" allow="pedestrian delivery bicycle" speed="5.56" length="18.82" shape="276.11,1523.08 261.21,1511.57"/>
    </edge>
    <edge id="1098517313" from="6159192414" to="7699556296" priority="12" type="highway.primary" spreadType="center" shape="381.46,1407.02 322.10,1477.11 286.37,1520.02 282.11,1525.69">