<?xml version="1.0" encoding="UTF-8"?>

<!-- generated on 2025-04-22 12:09:49.305119 by randomTrips.py v1_22_0+0002-63e50f52594
<configuration>
    <net-file value="Filtered.net.xml"/>
    <output-trip-file value="sim.rou.xml"/>
    <validate value="True"/>
</configuration>
-->

<!-- generated on 2025-04-22 12:09:49 by Eclipse SUMO duarouter Version 1.22.0
<duarouterConfiguration xmlns:xsi="http://www.w3.org/2001/XMLSchema-instance" xsi:noNamespaceSchemaLocation="http://sumo.dlr.de/xsd/duarouterConfiguration.xsd">

    <input>
        <net-file value="Filtered.net.xml"/>
        <route-files value="sim.rou.xml"/>
    </input>

    <output>
        <output-file value="sim.rou.xml.tmp"/>
        <alternatives-output value="NUL"/>
        <write-trips value="true"/>
    </output>

    <time>
        <begin value="0"/>
        <end value="3600.0"/>
    </time>

    <report>
        <no-warnings value="true"/>
        <ignore-errors value="true"/>
        <no-step-log value="true"/>
    </report>

</duarouterConfiguration>
-->

<routes xmlns:xsi="http://www.w3.org/2001/XMLSchema-instance" xsi:noNamespaceSchemaLocation="http://sumo.dlr.de/xsd/routes_file.xsd">
    <trip id="0" depart="0.00" from="32002539" to="1098517313"/>
    <trip id="2" depart="2.00" from="435248360#0" to="32002539"/>
    <trip id="4" depart="4.00" from="311522765" to="1098517313"/>
    <trip id="9" depart="9.00" from="435248363" to="1098517313"/>
    <trip id="11" depart="11.00" from="311521832" to="172812920"/>
    <trip id="16" depart="16.00" from="313352130" to="435248372"/>
    <trip id="24" depart="24.00" from="32002539" to="311521832"/>
    <trip id="27" depart="27.00" from="32002539" to="314808459"/>
    <trip id="30" depart="30.00" from="563566156" to="31521331"/>
    <trip id="31" depart="31.00" from="313352130" to="32002539"/>
    <trip id="37" depart="37.00" from="32002539" to="311521833"/>
    <trip id="38" depart="38.00" from="435248371" to="311522765"/>
    <trip id="43" depart="43.00" from="563566156" to="311684374#1"/>
    <trip id="44" depart="44.00" from="1271648423" to="1271648423"/>
    <trip id="45" depart="45.00" from="172812915#0" to="31521331"/>
    <trip id="46" depart="46.00" from="435248363" to="311522764"/>
    <trip id="47" depart="47.00" from="1271648423" to="311521833"/>
    <trip id="48" depart="48.00" from="563566156" to="311684374#1"/>
    <trip id="53" depart="53.00" from="172812915#0" to="311522764"/>
    <trip id="56" depart="56.00" from="313351524" to="172813072#0"/>
    <trip id="69" depart="69.00" from="435248360#1" to="172812920"/>
    <trip id="75" depart="75.00" from="563566156" to="31521331"/>
    <trip id="76" depart="76.00" from="311684374#0" to="311684374#1"/>
    <trip id="78" depart="78.00" from="311521832" to="313352846"/>
    <trip id="79" depart="79.00" from="229422268#0" to="229422268#0"/>
    <trip id="80" depart="80.00" from="1271648423" to="31521331"/>
    <trip id="85" depart="85.00" from="435248371" to="313352846"/>
    <trip id="88" depart="88.00" from="172812915#0" to="311522764"/>
    <trip id="89" depart="89.00" from="311522765" to="311522765"/>
    <trip id="90" depart="90.00" from="435248360#0" to="32002539"/>
    <trip id="98" depart="98.00" from="313352130" to="1271648423"/>
    <trip id="100" depart="100.00" from="563566156" to="435248365"/>
    <trip id="107" depart="107.00" from="435248372" to="435248372"/>
    <trip id="109" depart="109.00" from="172812915#1" to="28656749#1"/>
    <trip id="112" depart="112.00" from="1209035338" to="313352846"/>
    <trip id="119" depart="119.00" from="314808459" to="314808459"/>
    <trip id="120" depart="120.00" from="311522765" to="313352846"/>
    <trip id="121" depart="121.00" from="313351524" to="435248365"/>
    <trip id="124" depart="124.00" from="435248358#0" to="28656749#1"/>
    <trip id="126" depart="126.00" from="1271648423" to="311522765"/>
    <trip id="127" depart="127.00" from="563566156" to="435248372"/>
    <trip id="134" depart="134.00" from="32002539" to="1098517313"/>
    <trip id="135" depart="135.00" from="435248364#0" to="28656749#1"/>
    <trip id="137" depart="137.00" from="172812915#1" to="172812915#1"/>
    <trip id="148" depart="148.00" from="311522765" to="1098517313"/>
    <trip id="152" depart="152.00" from="172812915#1" to="172812920"/>
    <trip id="158" depart="158.00" from="311522765" to="314808459"/>
    <trip id="159" depart="159.00" from="172812915#1" to="435248365"/>
    <trip id="163" depart="163.00" from="311521832" to="435248365"/>
    <trip id="174" depart="174.00" from="32002539" to="311521833"/>
    <trip id="179" depart="179.00" from="172812915#0" to="311522764"/>
    <trip id="180" depart="180.00" from="435248360#0" to="29253113"/>
    <trip id="186" depart="186.00" from="435248360#0" to="32002539"/>
    <trip id="188" depart="188.00" from="435248358#0" to="29253113"/>
    <trip id="190" depart="190.00" from="435248360#0" to="28656749#1"/>
    <trip id="193" depart="193.00" from="172812915#1" to="311522764"/>
    <trip id="197" depart="197.00" from="1098517313" to="28656749#1"/>
    <trip id="198" depart="198.00" from="311522765" to="313352846"/>
    <trip id="199" depart="199.00" from="32002539" to="311522765"/>
    <trip id="204" depart="204.00" from="32002539" to="29253113"/>
    <trip id="210" depart="210.00" from="311522765" to="31521331"/>
    <trip id="213" depart="213.00" from="32002539" to="1098517313"/>
    <trip id="215" depart="215.00" from="172812915#0" to="311522764"/>
    <trip id="220" depart="220.00" from="435248358#0" to="435248372"/>
    <trip id="230" depart="230.00" from="1271648423" to="28656749#1"/>
    <trip id="232" depart="232.00" from="313352130" to="172812920"/>
    <trip id="244" depart="244.00" from="313352130" to="314808459"/>
    <trip id="245" depart="245.00" from="229422268#0" to="229422268#0"/>
    <trip id="246" depart="246.00" from="311522765" to="1098517313"/>
    <trip id="247" depart="247.00" from="311521832" to="32002539"/>
    <trip id="253" depart="253.00" from="172812915#1" to="311522765"/>
    <trip id="254" depart="254.00" from="1209035338" to="311521833"/>
    <trip id="256" depart="256.00" from="435248360#1" to="311521833"/>
    <trip id="260" depart="260.00" from="563566156" to="311521832"/>
    <trip id="265" depart="265.00" from="172812915#1" to="32002539"/>
    <trip id="271" depart="271.00" from="172812915#0" to="1098517313"/>
    <trip id="275" depart="275.00" from="435248358#1" to="31521331"/>
    <trip id="278" depart="278.00" from="172812915#0" to="435248372"/>
    <trip id="279" depart="279.00" from="435248363" to="311521832"/>
    <trip id="280" depart="280.00" from="311522765" to="311521832"/>
    <trip id="281" depart="281.00" from="313351524" to="29253113"/>
    <trip id="285" depart="285.00" from="435248358#1" to="311522764"/>
    <trip id="293" depart="293.00" from="311684374#0" to="314808459"/>
    <trip id="302" depart="302.00" from="435248358#1" to="31521331"/>
    <trip id="305" depart="305.00" from="435248358#1" to="28656749#1"/>
    <trip id="307" depart="307.00" from="313351524" to="311522764"/>
    <trip id="308" depart="308.00" from="435248360#0" to="29253113"/>
    <trip id="313" depart="313.00" from="172813072#0" to="172813072#1"/>
    <trip id="315" depart="315.00" from="563566156" to="311684374#1"/>
    <trip id="321" depart="321.00" from="435248358#1" to="172812920"/>
    <trip id="328" depart="328.00" from="1271648423" to="31521331"/>
    <trip id="329" depart="329.00" from="1209035338" to="172812920"/>
    <trip id="330" depart="330.00" from="313353057" to="28656749#1"/>
    <trip id="332" depart="332.00" from="435248360#1" to="314808459"/>
    <trip id="334" depart="334.00" from="313351524" to="311522765"/>
    <trip id="336" depart="336.00" from="563566156" to="28656749#1"/>
    <trip id="337" depart="337.00" from="314808459" to="314808459"/>
    <trip id="339" depart="339.00" from="172813072#1" to="172813072#1"/>
    <trip id="345" depart="345.00" from="435248358#1" to="311522765"/>
    <trip id="346" depart="346.00" from="435248358#0" to="435248365"/>
    <trip id="347" depart="347.00" from="435248363" to="31521331"/>
    <trip id="348" depart="348.00" from="435248358#0" to="435248365"/>
    <trip id="350" depart="350.00" from="32002539" to="435248365"/>
    <trip id="353" depart="353.00" from="435248360#0" to="313352846"/>
    <trip id="358" depart="358.00" from="1209035338" to="311522764"/>
    <trip id="362" depart="362.00" from="435248372" to="435248372"/>
    <trip id="367" depart="367.00" from="313353057" to="31521331"/>
    <trip id="369" depart="369.00" from="311521833" to="29253113"/>
    <trip id="375" depart="375.00" from="311521832" to="435248372"/>
    <trip id="377" depart="377.00" from="563566156" to="32002539"/>
    <trip id="378" depart="378.00" from="313352130" to="311522764"/>
    <trip id="380" depart="380.00" from="435248360#1" to="31521331"/>
    <trip id="382" depart="382.00" from="313352130" to="435248365"/>
    <trip id="384" depart="384.00" from="172812915#0" to="435248372"/>
    <trip id="388" depart="388.00" from="563566156" to="435248365"/>
    <trip id="394" depart="394.00" from="313352130" to="311521833"/>
    <trip id="398" depart="398.00" from="311522765" to="435248365"/>
    <trip id="401" depart="401.00" from="313353057" to="435248372"/>
    <trip id="403" depart="403.00" from="313352130" to="311521832"/>
    <trip id="404" depart="404.00" from="313352130" to="313352130"/>
    <trip id="407" depart="407.00" from="313353057" to="229422268#0"/>
    <trip id="410" depart="410.00" from="435248363" to="311521833"/>
    <trip id="412" depart="412.00" from="563566156" to="311684374#0"/>
    <trip id="416" depart="416.00" from="313351524" to="311522765"/>
    <trip id="417" depart="417.00" from="435248360#0" to="311522764"/>
    <trip id="418" depart="418.00" from="32002539" to="172812920"/>
    <trip id="426" depart="426.00" from="1271648423" to="31521331"/>
    <trip id="427" depart="427.00" from="435248371" to="435248372"/>
    <trip id="428" depart="428.00" from="435248360#0" to="311522764"/>
    <trip id="429" depart="429.00" from="172812915#0" to="31521331"/>
    <trip id="439" depart="439.00" from="172812915#1" to="311522765"/>
    <trip id="440" depart="440.00" from="229422268#1" to="229422268#1"/>
    <trip id="444" depart="444.00" from="311521833" to="313352846"/>
    <trip id="445" depart="445.00" from="32002539" to="311522764"/>
    <trip id="449" depart="449.00" from="313353057" to="313352846"/>
    <trip id="450" depart="450.00" from="563566156" to="28656749#1"/>
    <trip id="451" depart="451.00" from="563566156" to="32002539"/>
    <trip id="453" depart="453.00" from="435248358#0" to="435248358#1"/>
    <trip id="454" depart="454.00" from="1209035338" to="314808459"/>
    <trip id="458" depart="458.00" from="32002539" to="314808459"/>
    <trip id="459" depart="459.00" from="435248358#0" to="435248358#1"/>
    <trip id="462" depart="462.00" from="32002539" to="28656749#1"/>
    <trip id="463" depart="463.00" from="311684374#0" to="313352846"/>
    <trip id="467" depart="467.00" from="313352130" to="435248372"/>
    <trip id="468" depart="468.00" from="313351524" to="435248365"/>
    <trip id="473" depart="473.00" from="435248372" to="172812920"/>
    <trip id="475" depart="475.00" from="435248360#0" to="435248372"/>
    <trip id="480" depart="480.00" from="435248358#0" to="313352846"/>
    <trip id="484" depart="484.00" from="313352130" to="435248365"/>
    <trip id="491" depart="491.00" from="172812915#1" to="311522765"/>
    <trip id="492" depart="492.00" from="435248358#0" to="435248358#1"/>
    <trip id="494" depart="494.00" from="435248360#0" to="172812920"/>
    <trip id="498" depart="498.00" from="311521833" to="311522765"/>
    <trip id="500" depart="500.00" from="172812915#0" to="32002539"/>
    <trip id="501" depart="501.00" from="313352130" to="435248372"/>
    <trip id="502" depart="502.00" from="311521833" to="311521833"/>
    <trip id="505" depart="505.00" from="435248358#0" to="31521331"/>
    <trip id="508" depart="508.00" from="172812915#1" to="313352846"/>
    <trip id="510" depart="510.00" from="172813072#1" to="172813072#1"/>
    <trip id="514" depart="514.00" from="172812915#1" to="172812920"/>
    <trip id="516" depart="516.00" from="435248358#0" to="1098517313"/>
    <trip id="526" depart="526.00" from="313351524" to="311522765"/>
    <trip id="530" depart="530.00" from="435248371" to="172812915#0"/>
    <trip id="531" depart="531.00" from="1271648423" to="314808459"/>
    <trip id="534" depart="534.00" from="311521832" to="435248372"/>
    <trip id="535" depart="535.00" from="313351524" to="311522765"/>
    <trip id="541" depart="541.00" from="311521832" to="311522765"/>
    <trip id="543" depart="543.00" from="311522765" to="32002539"/>
    <trip id="544" depart="544.00" from="311521833" to="172812920"/>
    <trip id="545" depart="545.00" from="435248371" to="172812915#0"/>
    <trip id="551" depart="551.00" from="311521833" to="32002539"/>
    <trip id="562" depart="562.00" from="32002539" to="1098517313"/>
    <trip id="565" depart="565.00" from="435248358#1" to="28656749#1"/>
    <trip id="566" depart="566.00" from="311521832" to="1098517313"/>
    <trip id="569" depart="569.00" from="32002539" to="1098517313"/>
    <trip id="571" depart="571.00" from="311522765" to="29253113"/>
    <trip id="573" depart="573.00" from="435248360#1" to="313352846"/>
    <trip id="574" depart="574.00" from="1271648423" to="1271648423"/>
    <trip id="580" depart="580.00" from="311522765" to="28656749#1"/>
    <trip id="584" depart="584.00" from="1098517313" to="28656749#1"/>
    <trip id="592" depart="592.00" from="1209035338" to="1098517313"/>
    <trip id="594" depart="594.00" from="313353057" to="313352846"/>
    <trip id="595" depart="595.00" from="435248358#1" to="311522764"/>
    <trip id="596" depart="596.00" from="172812915#0" to="1098517313"/>
    <trip id="599" depart="599.00" from="435248371" to="172812915#0"/>
    <trip id="603" depart="603.00" from="311521832" to="29253113"/>
    <trip id="615" depart="615.00" from="313353057" to="31521331"/>
    <trip id="617" depart="617.00" from="32002539" to="172812920"/>
    <trip id="618" depart="618.00" from="1271648423" to="311522765"/>
    <trip id="622" depart="622.00" from="1209035338" to="435248363"/>
    <trip id="625" depart="625.00" from="313351524" to="311522765"/>
    <trip id="628" depart="628.00" from="435248363" to="31521331"/>
    <trip id="633" depart="633.00" from="313351524" to="172813072#0"/>
    <trip id="635" depart="635.00" from="311684374#0" to="311684374#1"/>
    <trip id="638" depart="638.00" from="311521832" to="314808459"/>
    <trip id="639" depart="639.00" from="435248363" to="31521331"/>
    <trip id="641" depart="641.00" from="435248358#0" to="28656749#1"/>
    <trip id="642" depart="642.00" from="435248360#0" to="32002539"/>
    <trip id="644" depart="644.00" from="311521832" to="313352846"/>
    <trip id="645" depart="645.00" from="172812915#1" to="311521832"/>
    <trip id="653" depart="653.00" from="32002539" to="311522764"/>
    <trip id="654" depart="654.00" from="311521833" to="311521832"/>
    <trip id="655" depart="655.00" from="172813072#0" to="172813072#1"/>
    <trip id="657" depart="657.00" from="229422268#0" to="172812920"/>
    <trip id="660" depart="660.00" from="435248364#0" to="435248364#1"/>
    <trip id="661" depart="661.00" from="1209035338" to="29253113"/>
    <trip id="662" depart="662.00" from="435248360#1" to="172812920"/>
    <trip id="669" depart="669.00" from="435248360#0" to="311522765"/>
    <trip id="670" depart="670.00" from="313352130" to="28656749#1"/>
    <trip id="673" depart="673.00" from="435248372" to="435248372"/>
    <trip id="677" depart="677.00" from="435248363" to="172812920"/>
    <trip id="681" depart="681.00" from="435248364#1" to="28656749#1"/>
    <trip id="686" depart="686.00" from="311521833" to="1098517313"/>
    <trip id="689" depart="689.00" from="311521833" to="1098517313"/>
    <trip id="692" depart="692.00" from="172812915#1" to="28656749#1"/>
    <trip id="699" depart="699.00" from="172812915#0" to="28656749#1"/>
    <trip id="705" depart="705.00" from="229422268#0" to="172812920"/>
    <trip id="706" depart="706.00" from="311522765" to="314808459"/>
    <trip id="713" depart="713.00" from="32002539" to="435248372"/>
    <trip id="715" depart="715.00" from="435248363" to="311521832"/>
    <trip id="716" depart="716.00" from="435248360#0" to="31521331"/>
    <trip id="719" depart="719.00" from="313352130" to="435248363"/>
    <trip id="726" depart="726.00" from="1209035338" to="435248365"/>
    <trip id="727" depart="727.00" from="313351524" to="435248372"/>
    <trip id="732" depart="732.00" from="172812915#0" to="311521832"/>
    <trip id="735" depart="735.00" from="563566156" to="311684374#0"/>
    <trip id="737" depart="737.00" from="313351524" to="435248360#1"/>
    <trip id="740" depart="740.00" from="313352130" to="29253113"/>
    <trip id="741" depart="741.00" from="1271648423" to="32002539"/>
    <trip id="742" depart="742.00" from="29253113" to="314808459"/>
    <trip id="748" depart="748.00" from="1271648423" to="31521331"/>
    <trip id="751" depart="751.00" from="172812915#1" to="314808459"/>
    <trip id="752" depart="752.00" from="435248363" to="1271648423"/>
    <trip id="754" depart="754.00" from="311521833" to="311521833"/>
    <trip id="755" depart="755.00" from="313353057" to="314808459"/>
    <trip id="759" depart="759.00" from="311522764" to="31521331"/>
    <trip id="763" depart="763.00" from="229422268#1" to="229422268#1"/>
    <trip id="769" depart="769.00" from="1271648423" to="32002539"/>
    <trip id="772" depart="772.00" from="313352130" to="435248364#1"/>
    <trip id="774" depart="774.00" from="435248371" to="31521331"/>
    <trip id="780" depart="780.00" from="313352130" to="314808459"/>
    <trip id="781" depart="781.00" from="1271648423" to="28656749#1"/>
    <trip id="782" depart="782.00" from="563566156" to="435248358#1"/>
    <trip id="783" depart="783.00" from="313351524" to="435248360#0"/>
    <trip id="785" depart="785.00" from="563566156" to="31521331"/>
    <trip id="788" depart="788.00" from="435248360#1" to="31521331"/>
    <trip id="790" depart="790.00" from="311522765" to="435248365"/>
    <trip id="797" depart="797.00" from="313352130" to="172812920"/>
    <trip id="799" depart="799.00" from="313351524" to="172813072#0"/>
    <trip id="800" depart="800.00" from="435248372" to="172812920"/>
    <trip id="801" depart="801.00" from="435248358#0" to="435248358#1"/>
    <trip id="805" depart="805.00" from="32002539" to="313352846"/>
    <trip id="807" depart="807.00" from="311522765" to="31521331"/>
    <trip id="811" depart="811.00" from="435248358#0" to="28656749#1"/>
    <trip id="812" depart="812.00" from="1271648423" to="1271648423"/>
    <trip id="813" depart="813.00" from="311684374#0" to="311684374#0"/>
    <trip id="817" depart="817.00" from="563566156" to="172812920"/>
    <trip id="819" depart="819.00" from="311521832" to="311522765"/>
    <trip id="821" depart="821.00" from="172812915#0" to="28656749#1"/>
    <trip id="825" depart="825.00" from="313353057" to="29253113"/>
    <trip id="834" depart="834.00" from="313352130" to="435248364#0"/>
    <trip id="836" depart="836.00" from="435248360#0" to="435248360#0"/>
    <trip id="837" depart="837.00" from="311521833" to="311521833"/>
    <trip id="840" depart="840.00" from="313351524" to="435248360#0"/>
    <trip id="843" depart="843.00" from="563566156" to="311521833"/>
    <trip id="844" depart="844.00" from="435248363" to="29253113"/>
    <trip id="848" depart="848.00" from="172812915#1" to="29253113"/>
    <trip id="851" depart="851.00" from="311521832" to="314808459"/>
    <trip id="853" depart="853.00" from="435248360#0" to="28656749#1"/>
    <trip id="857" depart="857.00" from="311521833" to="32002539"/>
    <trip id="858" depart="858.00" from="563566156" to="313352846"/>
    <trip id="860" depart="860.00" from="435248358#1" to="1098517313"/>
    <trip id="865" depart="865.00" from="32002539" to="314808459"/>
    <trip id="875" depart="875.00" from="311521832" to="32002539"/>
    <trip id="876" depart="876.00" from="313351524" to="29253113"/>
    <trip id="878" depart="878.00" from="311521832" to="311521832"/>
    <trip id="886" depart="886.00" from="311521832" to="311521832"/>
    <trip id="889" depart="889.00" from="435248358#0" to="311521833"/>
    <trip id="893" depart="893.00" from="435248358#1" to="311521832"/>
    <trip id="896" depart="896.00" from="313352130" to="435248365"/>
    <trip id="897" depart="897.00" from="435248358#1" to="172812920"/>
    <trip id="898" depart="898.00" from="314808459" to="313352846"/>
    <trip id="900" depart="900.00" from="313351524" to="31521331"/>
    <trip id="901" depart="901.00" from="1209035338" to="311522764"/>
    <trip id="903" depart="903.00" from="435248360#1" to="1098517313"/>
    <trip id="904" depart="904.00" from="313352130" to="435248365"/>
    <trip id="905" depart="905.00" from="311522765" to="435248365"/>
    <trip id="908" depart="908.00" from="311521832" to="31521331"/>
    <trip id="909" depart="909.00" from="435248371" to="172812915#0"/>
    <trip id="911" depart="911.00" from="435248360#0" to="435248365"/>
    <trip id="914" depart="914.00" from="435248371" to="435248372"/>
    <trip id="916" depart="916.00" from="435248371" to="435248371"/>
    <trip id="919" depart="919.00" from="172812915#0" to="435248372"/>
    <trip id="927" depart="927.00" from="435248363" to="313352846"/>
    <trip id="929" depart="929.00" from="435248364#1" to="435248364#1"/>
    <trip id="931" depart="931.00" from="1271648423" to="32002539"/>
    <trip id="939" depart="939.00" from="172812915#0" to="28656749#1"/>
    <trip id="943" depart="943.00" from="435248371" to="28656749#1"/>
    <trip id="945" depart="945.00" from="172812915#1" to="172812920"/>
    <trip id="946" depart="946.00" from="435248360#0" to="314808459"/>
    <trip id="953" depart="953.00" from="1271648423" to="313352846"/>
    <trip id="954" depart="954.00" from="1209035338" to="313352130"/>
    <trip id="955" depart="955.00" from="313351524" to="313352846"/>
    <trip id="956" depart="956.00" from="172812915#1" to="29253113"/>
    <trip id="960" depart="960.00" from="435248363" to="311522765"/>
    <trip id="961" depart="961.00" from="313351524" to="311522765"/>
    <trip id="962" depart="962.00" from="1209035338" to="311522765"/>
    <trip id="965" depart="965.00" from="435248360#0" to="313352846"/>
    <trip id="966" depart="966.00" from="1209035338" to="311521832"/>
    <trip id="967" depart="967.00" from="1271648423" to="435248372"/>
    <trip id="968" depart="968.00" from="435248371" to="172812915#0"/>
    <trip id="971" depart="971.00" from="435248360#1" to="435248372"/>
    <trip id="972" depart="972.00" from="32002539" to="311522764"/>
    <trip id="973" depart="973.00" from="563566156" to="311521833"/>
    <trip id="977" depart="977.00" from="32002539" to="311521832"/>
    <trip id="981" depart="981.00" from="1098517313" to="28656749#1"/>
    <trip id="983" depart="983.00" from="313352130" to="435248363"/>
    <trip id="987" depart="987.00" from="435248363" to="311522764"/>
    <trip id="997" depart="997.00" from="435248360#0" to="29253113"/>
    <trip id="999" depart="999.00" from="311521832" to="28656749#1"/>
    <trip id="1000" depart="1000.00" from="172812915#1" to="32002539"/>
    <trip id="1003" depart="1003.00" from="435248365" to="435248365"/>
    <trip id="1004" depart="1004.00" from="32002539" to="311522764"/>
    <trip id="1007" depart="1007.00" from="435248363" to="29253113"/>
    <trip id="1008" depart="1008.00" from="311522765" to="172812920"/>
    <trip id="1012" depart="1012.00" from="435248363" to="435248365"/>
    <trip id="1014" depart="1014.00" from="313352130" to="172812920"/>
    <trip id="1016" depart="1016.00" from="32002539" to="435248365"/>
    <trip id="1027" depart="1027.00" from="563566156" to="311684374#0"/>
    <trip id="1034" depart="1034.00" from="172812915#0" to="435248372"/>
    <trip id="1036" depart="1036.00" from="435248371" to="311521832"/>
    <trip id="1037" depart="1037.00" from="311522765" to="313352846"/>
    <trip id="1038" depart="1038.00" from="229422268#0" to="172812920"/>
    <trip id="1040" depart="1040.00" from="313353057" to="311522764"/>
    <trip id="1041" depart="1041.00" from="172812915#1" to="29253113"/>
    <trip id="1050" depart="1050.00" from="313352130" to="31521331"/>
    <trip id="1051" depart="1051.00" from="1209035338" to="1271648423"/>
    <trip id="1057" depart="1057.00" from="311521833" to="314808459"/>
    <trip id="1058" depart="1058.00" from="435248358#0" to="314808459"/>
    <trip id="1065" depart="1065.00" from="435248371" to="172812915#1"/>
    <trip id="1066" depart="1066.00" from="172812915#0" to="172812920"/>
    <trip id="1076" depart="1076.00" from="1209035338" to="1098517313"/>
    <trip id="1082" depart="1082.00" from="435248364#1" to="435248364#1"/>
    <trip id="1084" depart="1084.00" from="1271648423" to="435248365"/>
    <trip id="1086" depart="1086.00" from="1209035338" to="435248365"/>
    <trip id="1089" depart="1089.00" from="435248358#1" to="311521833"/>
    <trip id="1094" depart="1094.00" from="172812915#1" to="435248372"/>
    <trip id="1100" depart="1100.00" from="435248360#1" to="1098517313"/>
    <trip id="1104" depart="1104.00" from="435248358#0" to="32002539"/>
    <trip id="1105" depart="1105.00" from="1271648423" to="314808459"/>
    <trip id="1107" depart="1107.00" from="1271648423" to="172812920"/>
    <trip id="1108" depart="1108.00" from="435248358#1" to="31521331"/>
    <trip id="1109" depart="1109.00" from="435248360#0" to="29253113"/>
    <trip id="1110" depart="1110.00" from="172812915#0" to="1098517313"/>
    <trip id="1112" depart="1112.00" from="229422268#1" to="172812920"/>
    <trip id="1114" depart="1114.00" from="313352130" to="311522764"/>
    <trip id="1116" depart="1116.00" from="1271648423" to="314808459"/>
    <trip id="1117" depart="1117.00" from="311521832" to="311521833"/>
    <trip id="1124" depart="1124.00" from="1271648423" to="311522764"/>
    <trip id="1129" depart="1129.00" from="172812915#0" to="28656749#1"/>
    <trip id="1132" depart="1132.00" from="311521832" to="29253113"/>
    <trip id="1133" depart="1133.00" from="435248364#0" to="435248364#0"/>
    <trip id="1134" depart="1134.00" from="563566156" to="172812920"/>
    <trip id="1139" depart="1139.00" from="311684374#1" to="313352846"/>
    <trip id="1142" depart="1142.00" from="172812915#0" to="313352846"/>
    <trip id="1146" depart="1146.00" from="435248358#1" to="311522765"/>
    <trip id="1151" depart="1151.00" from="435248358#0" to="435248358#0"/>
    <trip id="1153" depart="1153.00" from="563566156" to="311684374#0"/>
    <trip id="1158" depart="1158.00" from="313352130" to="31521331"/>
    <trip id="1160" depart="1160.00" from="435248358#0" to="311521832"/>
    <trip id="1162" depart="1162.00" from="563566156" to="32002539"/>
    <trip id="1167" depart="1167.00" from="313353057" to="313352846"/>
    <trip id="1169" depart="1169.00" from="435248360#1" to="313352846"/>
    <trip id="1170" depart="1170.00" from="313351524" to="311521832"/>
    <trip id="1174" depart="1174.00" from="172812915#1" to="28656749#1"/>
    <trip id="1178" depart="1178.00" from="311521832" to="28656749#1"/>
    <trip id="1183" depart="1183.00" from="172813072#0" to="172813072#0"/>
    <trip id="1186" depart="1186.00" from="172813072#0" to="31521331"/>
    <trip id="1187" depart="1187.00" from="311522765" to="1098517313"/>
    <trip id="1189" depart="1189.00" from="313353057" to="311521833"/>
    <trip id="1191" depart="1191.00" from="435248360#1" to="435248360#1"/>
    <trip id="1194" depart="1194.00" from="311521832" to="311522765"/>
    <trip id="1196" depart="1196.00" from="313351524" to="31521331"/>
    <trip id="1197" depart="1197.00" from="314808459" to="314808459"/>
    <trip id="1198" depart="1198.00" from="313353057" to="311521832"/>
    <trip id="1201" depart="1201.00" from="29253113" to="314808459"/>
    <trip id="1202" depart="1202.00" from="1271648423" to="172812920"/>
    <trip id="1203" depart="1203.00" from="172812915#0" to="28656749#1"/>
    <trip id="1205" depart="1205.00" from="313351524" to="311522764"/>
    <trip id="1206" depart="1206.00" from="172812915#1" to="311521833"/>
    <trip id="1207" depart="1207.00" from="172813072#0" to="31521331"/>
    <trip id="1208" depart="1208.00" from="435248358#1" to="31521331"/>
    <trip id="1211" depart="1211.00" from="311521832" to="311522765"/>
    <trip id="1212" depart="1212.00" from="1209035338" to="311521832"/>
    <trip id="1216" depart="1216.00" from="435248358#0" to="311522764"/>
    <trip id="1218" depart="1218.00" from="1271648423" to="1098517313"/>
    <trip id="1219" depart="1219.00" from="435248360#1" to="28656749#1"/>
    <trip id="1222" depart="1222.00" from="435248360#0" to="435248360#0"/>
    <trip id="1235" depart="1235.00" from="313353057" to="311521832"/>
    <trip id="1236" depart="1236.00" from="435248358#1" to="31521331"/>
    <trip id="1238" depart="1238.00" from="172813072#1" to="172813072#1"/>
    <trip id="1239" depart="1239.00" from="1209035338" to="311521832"/>
    <trip id="1246" depart="1246.00" from="435248371" to="435248372"/>
    <trip id="1250" depart="1250.00" from="435248360#1" to="32002539"/>
    <trip id="1251" depart="1251.00" from="311684374#1" to="313352846"/>
    <trip id="1256" depart="1256.00" from="435248371" to="311521832"/>
    <trip id="1265" depart="1265.00" from="311521832" to="313352846"/>
    <trip id="1267" depart="1267.00" from="311521832" to="32002539"/>
    <trip id="1269" depart="1269.00" from="435248363" to="311522765"/>
    <trip id="1273" depart="1273.00" from="435248358#1" to="172812920"/>