<configuration>
    <input>
        <net-file value="Filtered.net.xml"/>
        <route-files value="sim.rou.xml"/>
    </input>
    <time>
        <begin value="0"/>
        <end value="5000"/>
    </time>
</configuration>
